lv-network-models/network_18/Feeder_6/LineCode.txt
New LineCode.2c_.007_VIR nphases=3 R1=3.97 X1=0.099 R0=3.97 X0=0.099 C1=0 C0=0 Units=km
New LineCode.2c_.0225 nphases=3 R1=1.257 X1=0.085 R0=1.257 X0=0.085 C1=0 C0=0 Units=km
New LineCode.2c_.0225_UA nphases=3 R1=1.257 X1=0.085 R0=1.257 X0=0.085 C1=0 C0=0 Units=km
New LineCode.2c_4_Cd nphases=3 R1=4.61 X1=0.091 R0=4.8 X0=0.091 C1=0 C0=0 Units=km
New LineCode.3c_.03_UA nphases=3 R1=1.257 X1=0.086 R0=3.83 X0=0.102 C1=0 C0=0 Units=km
New LineCode.4_PC nphases=3 R1=4.61 X1=0.094 R0=4.8 X0=0.094 C1=0 C0=0 Units=km
New LineCode.4c_.2 nphases=3 R1=0.15 X1=0.069 R0=0.533 X0=0.078 C1=0 C0=0 Units=km
